[submodule "dualsphysics"]
	path = dualsphysics
	url = https://github.com/imestevez/DualSPHysics-bin
