(dp0
S'dtmin_auto'
p1
I01
sS'timemax'
p2
F1.5
sS'coefsound'
p3
I20
sS'dtini'
p4
F0.0001
sS'speedsystem'
p5
I0
sS'simulation_done'
p6
I01
sS'rhop0'
p7
I1000
sS'initials_mks'
p8
(dp9
sS'lattice_fluid'
p10
I1
sS'ftpause'
p11
F0.0
sS'deltasph'
p12
I0
sS'viscotreatment'
p13
I1
sS'massfluid'
p14
I0
sS'project_path'
p15
VC:/Users/anvie/Desktop/DSPH_Development/test-examples/dam-break
p16
sS'mkboundused'
p17
(lp18
I0
aI1
aI2
aI3
aI4
aI1
asS'coefdtmin'
p19
F0.05
sS'total_particles'
p20
I4989
sS'project_name'
p21
Vdam-break
p22
sS'floating_mks'
p23
(dp24
sS'dtfixed'
p25
S'DtFixed.dat'
p26
sS'mkfluidused'
p27
(lp28
sS'partsoutmax'
p29
I1
sS'dp'
p30
F0.025
sS'rhopoutmin'
p31
I700
sS'b'
p32
I0
sS'coefh'
p33
I1
sS'partvtk4_path'
p34
VC:/DualSPHysics/EXECS/PartVTK4_win64.exe
p35
sS'stepalgorithm'
p36
I1
sS'viscoboundfactor'
p37
I1
sS'hswl'
p38
I0
sS'shiftcoef'
p39
I-2
sS'rhopoutmax'
p40
I1300
sS'posdouble'
p41
I1
sS'timeout'
p42
F0.01
sS'h'
p43
I0
sS'export_options'
p44
S''
p45
sS'massfluid_auto'
p46
I01
sS'kernel'
p47
I2
sS'gencase_path'
p48
VC:/DualSPHysics/EXECS/GenCase4_win64.exe
p49
sS'hswl_auto'
p50
I01
sS'dtallparticles'
p51
I0
sS'shifttfs'
p52
F1.5
sS'additional_parameters'
p53
g45
sS'incz'
p54
I1
sS'speedsound_auto'
p55
I01
sS'gravity'
p56
(lp57
I0
aI0
aF-9.81
asS'massbound'
p58
I0
sS'b_auto'
p59
I01
sS'rigidalgorithm'
p60
I1
sS'speedsound'
p61
I0
sS'dsphysics_path'
p62
VC:/DualSPHysics/EXECS/DualSPHysics4_win64.exe
p63
sS'lattice_bound'
p64
I1
sS'gencase_done'
p65
I01
sS'shifting'
p66
I0
sS'visco'
p67
F0.01
sS'total_particles_out'
p68
I0
sS'simobjects'
p69
(dp70
S'Box'
p71
(lp72
I0
aS'bound'
p73
aS'full'
p74
asS'Box005'
p75
(lp76
I0
aVFluid
p77
ag74
asS'Box004'
p78
(lp79
I0
ag73
ag74
asS'Box003'
p80
(lp81
I0
ag73
ag74
asS'Box002'
p82
(lp83
I0
aVBound
p84
ag74
asS'Box001'
p85
(lp86
I0
aVBound
p87
ag74
asS'Case_Limits'
p88
(lp89
S'mkspecial'
p90
aS'typespecial'
p91
aS'fillspecial'
p92
assS'verletsteps'
p93
I40
sS'h_auto'
p94
I01
sS'massbound_auto'
p95
I01
sS'dtini_auto'
p96
I01
sS'cflnumber'
p97
F0.2
sS'export_order'
p98
(lp99
g88
aS'Box005'
p100
aS'Box'
p101
aS'Box004'
p102
aS'Box003'
p103
aS'Box002'
p104
aS'Box001'
p105
asS'dtmin'
p106
F1e-05
sS'speedsystem_auto'
p107
I01
sS'gamma'
p108
I7
s.